#	Name:			MFCD00000058
#	Creating user name:	didier
#	Creation time:		Tue Apr  4 13:23:24 2000

#	Modifying user name:	didier
#	Modification time:	Tue Apr  4 13:23:34 2000

@<TRIPOS>MOLECULE
MFCD00000058
   12    12     1     0     0
SMALL
GASTEIGER


@<TRIPOS>ATOM
      1 C1         -0.0167    1.3794    0.0096 C.ar      1 <1>         0.0426 
      2 C2          0.0021   -0.0041    0.0020 C.ar      1 <1>         0.0426 
      3 C3          1.1724    2.0877    0.0021 C.ar      1 <1>         0.0426 
      4 BR4        -1.6670    2.3026    0.0224 Br        1 <1>        -0.0426 
      5 C5          1.2099   -0.6797   -0.0131 C.ar      1 <1>         0.0426 
      6 BR6        -1.6225   -0.9718    0.0117 Br        1 <1>        -0.0426 
      7 C7          2.3799    1.4123   -0.0131 C.ar      1 <1>         0.0426 
      8 BR8         1.1468    3.9785    0.0118 Br        1 <1>        -0.0426 
      9 C9          2.3987    0.0283   -0.0202 C.ar      1 <1>         0.0426 
     10 BR10        1.2356   -2.5705   -0.0235 Br        1 <1>        -0.0426 
     11 BR11        4.0045    2.3800   -0.0227 Br        1 <1>        -0.0426 
     12 BR12        4.0489   -0.8948   -0.0402 Br        1 <1>        -0.0426 
@<TRIPOS>BOND
     1    1    2 ar   
     2    1    3 ar   
     3    1    4 1    
     4    2    5 ar   
     5    2    6 1    
     6    3    7 ar   
     7    3    8 1    
     8    5    9 ar   
     9    5   10 1    
    10    7   11 1    
    11    7    9 ar   
    12    9   12 1    
@<TRIPOS>SUBSTRUCTURE
     1 ****        1 TEMP              0 ****  ****    0 ROOT 
#	Name:			MFCD00000060
#	Creating user name:	didier
#	Creation time:		Tue Apr  4 13:23:24 2000

#	Modifying user name:	didier
#	Modification time:	Tue Apr  4 13:23:35 2000

@<TRIPOS>MOLECULE
MFCD00000060
   15    15     1     0     0
SMALL
GASTEIGER


@<TRIPOS>ATOM
      1 C1         -0.0167    1.3786    0.0096 C.ar      1 <1>        -0.0277 
      2 C2          0.0021   -0.0041    0.0020 C.ar      1 <1>         0.0325 
      3 C3          1.1715    2.0869    0.0021 C.ar      1 <1>         0.0325 
      4 C4         -1.3320    2.1141    0.0199 C.3       1 <1>        -0.0404 
      5 C5          1.2100   -0.6800   -0.0127 C.ar      1 <1>         0.0433 
      6 BR6        -1.6226   -0.9716    0.0124 Br        1 <1>        -0.0424 
      7 C7          2.3794    1.4119   -0.0136 C.ar      1 <1>         0.0433 
      8 BR8         1.1451    3.9777    0.0126 Br        1 <1>        -0.0424 
      9 C9          2.3987    0.0281   -0.0203 C.ar      1 <1>         0.0441 
     10 BR10        1.2355   -2.5708   -0.0219 Br        1 <1>        -0.0415 
     11 BR11        4.0036    2.3803   -0.0251 Br        1 <1>        -0.0415 
     12 BR12        4.0491   -0.8948   -0.0399 Br        1 <1>        -0.0415 
     13 H13        -2.1522    1.3811    0.0248 H         1 <1>         0.0272 
     14 H14        -1.4051    2.7393    0.9219 H         1 <1>         0.0272 
     15 H15        -1.4179    2.7417   -0.8794 H         1 <1>         0.0272 
@<TRIPOS>BOND
     1    1    2 ar   
     2    1    3 ar   
     3    1    4 1    
     4    2    5 ar   
     5    2    6 1    
     6    3    7 ar   
     7    3    8 1    
     8    5    9 ar   
     9    5   10 1    
    10    7   11 1    
    11    7    9 ar   
    12    9   12 1    
    13    4   13 1    
    14    4   14 1    
    15    4   15 1    
@<TRIPOS>SUBSTRUCTURE
     1 ****        1 TEMP              0 ****  ****    0 ROOT 
#	Name:			MFCD00000061
#	Creating user name:	didier
#	Creation time:		Tue Apr  4 13:23:24 2000

#	Modifying user name:	didier
#	Modification time:	Tue Apr  4 13:23:35 2000

@<TRIPOS>MOLECULE
MFCD00000061
   18    18     1     0     0
SMALL
GASTEIGER


@<TRIPOS>ATOM
      1 C1         -0.0167    1.3786    0.0096 C.ar      1 <1>        -0.0249 
      2 C2          0.0021   -0.0041    0.0020 C.ar      1 <1>         0.0328 
      3 C3          1.1715    2.0869    0.0021 C.ar      1 <1>         0.0328 
      4 C4         -1.3320    2.1141    0.0199 C.3       1 <1>        -0.0311 
      5 C5          1.2100   -0.6800   -0.0127 C.ar      1 <1>         0.0433 
      6 BR6        -1.6226   -0.9716    0.0124 Br        1 <1>        -0.0424 
      7 C7          2.3794    1.4119   -0.0136 C.ar      1 <1>         0.0433 
      8 BR8         1.1451    3.9777    0.0126 Br        1 <1>        -0.0424 
      9 C9         -1.7703    2.3551    1.4658 C.3       1 <1>        -0.0617 
     10 C10         2.3987    0.0281   -0.0203 C.ar      1 <1>         0.0441 
     11 BR11        1.2355   -2.5708   -0.0219 Br        1 <1>        -0.0415 
     12 BR12        4.0036    2.3803   -0.0251 Br        1 <1>        -0.0415 
     13 BR13        4.0491   -0.8948   -0.0399 Br        1 <1>        -0.0415 
     14 H14        -1.2204    3.0851   -0.4848 H         1 <1>         0.0305 
     15 H15        -2.0996    1.5128   -0.4892 H         1 <1>         0.0305 
     16 H16        -2.7304    2.8920    1.4642 H         1 <1>         0.0232 
     17 H17        -1.8986    1.3934    1.9841 H         1 <1>         0.0232 
     18 H18        -1.0194    2.9657    1.9886 H         1 <1>         0.0232 
@<TRIPOS>BOND
     1    1    2 ar   
     2    1    3 ar   
     3    1    4 1    
     4    2    5 ar   
     5    2    6 1    
     6    3    7 ar   
     7    3    8 1    
     8    4    9 1    
     9    5   10 ar   
    10    5   11 1    
    11    7   12 1    
    12    7   10 ar   
    13   10   13 1    
    14    4   14 1    
    15    4   15 1    
    16    9   16 1    
    17    9   17 1    
    18    9   18 1    
@<TRIPOS>SUBSTRUCTURE
     1 ****        1 TEMP              0 ****  ****    0 ROOT 
#	Name:			MFCD00000062
#	Creating user name:	didier
#	Creation time:		Tue Apr  4 13:23:24 2000

#	Modifying user name:	didier
#	Modification time:	Tue Apr  4 13:23:35 2000

@<TRIPOS>MOLECULE
MFCD00000062
   12    12     1     0     0
SMALL
GASTEIGER


@<TRIPOS>ATOM
      1 C1         -0.0167    1.3797    0.0096 C.ar      1 <1>         0.0319 
      2 C2          0.0021   -0.0041    0.0020 C.ar      1 <1>         0.0309 
      3 C3          1.1718    2.0871    0.0021 C.ar      1 <1>        -0.0368 
      4 BR4        -1.6668    2.3032    0.0224 Br        1 <1>        -0.0403 
      5 C5          1.2094   -0.6791   -0.0131 C.ar      1 <1>        -0.0504 
      6 BR6        -1.6224   -0.9719    0.0130 Br        1 <1>        -0.0404 
      7 C7          2.3783    1.4114   -0.0131 C.ar      1 <1>         0.0174 
      8 C8          2.3966    0.0280   -0.0207 C.ar      1 <1>        -0.0515 
      9 BR9         4.0034    2.3784   -0.0240 Br        1 <1>        -0.0415 
     10 H10         1.1576    3.1710    0.0081 H         1 <1>         0.0611 
     11 H11         1.2242   -1.7630   -0.0190 H         1 <1>         0.0599 
     12 H12         3.3425   -0.5013   -0.0326 H         1 <1>         0.0599 
@<TRIPOS>BOND
     1    1    2 ar   
     2    1    3 ar   
     3    1    4 1    
     4    2    5 ar   
     5    2    6 1    
     6    3    7 ar   
     7    5    8 ar   
     8    7    9 1    
     9    7    8 ar   
    10    3   10 1    
    11    5   11 1    
    12    8   12 1    
@<TRIPOS>SUBSTRUCTURE
     1 ****        1 TEMP              0 ****  ****    0 ROOT 
#	Name:			MFCD00000063
#	Creating user name:	didier
#	Creation time:		Tue Apr  4 13:23:24 2000

#	Modifying user name:	didier
#	Modification time:	Tue Apr  4 13:23:35 2000

@<TRIPOS>MOLECULE
MFCD00000063
   12    12     1     0     0
SMALL
GASTEIGER


@<TRIPOS>ATOM
      1 C1         -0.0167    1.3798    0.0096 C.ar      1 <1>         0.0302 
      2 C2          0.0021   -0.0041    0.0020 C.ar      1 <1>         0.0302 
      3 C3          1.1716    2.0876    0.0021 C.ar      1 <1>        -0.0374 
      4 BR4        -1.6670    2.3029    0.0224 Br        1 <1>        -0.0416 
      5 C5          1.2092   -0.6793   -0.0131 C.ar      1 <1>        -0.0374 
      6 BR6        -1.6225   -0.9718    0.0129 Br        1 <1>        -0.0416 
      7 C7          2.3784    1.4126   -0.0130 C.ar      1 <1>         0.0302 
      8 C8          2.3971    0.0283   -0.0206 C.ar      1 <1>         0.0302 
      9 BR9         4.0029    2.3803   -0.0246 Br        1 <1>        -0.0416 
     10 BR10        4.0474   -0.8948   -0.0401 Br        1 <1>        -0.0416 
     11 H11         1.1569    3.1715    0.0081 H         1 <1>         0.0602 
     12 H12         1.2239   -1.7632   -0.0191 H         1 <1>         0.0602 
@<TRIPOS>BOND
     1    1    2 ar   
     2    1    3 ar   
     3    1    4 1    
     4    2    5 ar   
     5    2    6 1    
     6    3    7 ar   
     7    5    8 ar   
     8    7    9 1    
     9    7    8 ar   
    10    8   10 1    
    11    3   11 1    
    12    5   12 1    
@<TRIPOS>SUBSTRUCTURE
     1 ****        1 TEMP              0 ****  ****    0 ROOT 
#	Name:			MFCD00000080
#	Creating user name:	didier
#	Creation time:		Tue Apr  4 13:23:24 2000

#	Modifying user name:	didier
#	Modification time:	Tue Apr  4 13:23:35 2000

@<TRIPOS>MOLECULE
MFCD00000080
   12    12     1     0     0
SMALL
GASTEIGER


@<TRIPOS>ATOM
      1 C1         -0.0167    1.3791    0.0096 C.ar      1 <1>         0.0184 
      2 C2          0.0021   -0.0041    0.0020 C.ar      1 <1>        -0.0379 
      3 C3          1.1714    2.0868    0.0021 C.ar      1 <1>        -0.0379 
      4 BR4        -1.6670    2.3023    0.0225 Br        1 <1>        -0.0415 
      5 C5          1.2089   -0.6792   -0.0132 C.ar      1 <1>         0.0184 
      6 C6          2.3787    1.4115   -0.0131 C.ar      1 <1>         0.0184 
      7 C7          2.3974    0.0288   -0.0212 C.ar      1 <1>        -0.0379 
      8 BR8         1.2346   -2.5700   -0.0223 Br        1 <1>        -0.0415 
      9 BR9         4.0033    2.3792   -0.0247 Br        1 <1>        -0.0415 
     10 H10        -0.9292   -0.5588    0.0080 H         1 <1>         0.0610 
     11 H11         1.1567    3.1707    0.0081 H         1 <1>         0.0610 
     12 H12         3.3434   -0.5004   -0.0338 H         1 <1>         0.0610 
@<TRIPOS>BOND
     1    1    2 ar   
     2    1    3 ar   
     3    1    4 1    
     4    2    5 ar   
     5    3    6 ar   
     6    5    7 ar   
     7    5    8 1    
     8    6    9 1    
     9    6    7 ar   
    10    2   10 1    
    11    3   11 1    
    12    7   12 1    
@<TRIPOS>SUBSTRUCTURE
     1 ****        1 TEMP              0 ****  ****    0 ROOT 
#	Name:			MFCD00000095
#	Creating user name:	didier
#	Creation time:		Tue Apr  4 13:23:24 2000

#	Modifying user name:	didier
#	Modification time:	Tue Apr  4 13:23:35 2000

@<TRIPOS>MOLECULE
MFCD00000095
   23    24     1     0     0
SMALL
GASTEIGER


@<TRIPOS>ATOM
      1 C1         -0.0167    1.3548    0.0061 C.ar      1 <1>         0.0620 
      2 O2          0.0021   -0.0041    0.0020 O.3       1 <1>        -0.3382 
      3 C3         -1.2274    2.0330    0.0069 C.ar      1 <1>        -0.0322 
      4 C4          1.1745    2.0659    0.0154 C.ar      1 <1>        -0.0322 
      5 C5         -1.2874   -0.4151    0.1255 C.ar      1 <1>         0.0620 
      6 C6         -1.2441    3.4140    0.0116 C.ar      1 <1>        -0.0411 
      7 C7          1.1531    3.4473    0.0200 C.ar      1 <1>        -0.0411 
      8 C8         -2.0306   -0.7199   -1.0055 C.ar      1 <1>        -0.0322 
      9 C9         -1.8607   -0.5359    1.3835 C.ar      1 <1>        -0.0322 
     10 C10        -0.0549    4.1213    0.0155 C.ar      1 <1>         0.0263 
     11 C11        -3.3414   -1.1375   -0.8777 C.ar      1 <1>        -0.0411 
     12 C12        -3.1713   -0.9537    1.5067 C.ar      1 <1>        -0.0411 
     13 BR13       -0.0810    6.0122    0.0212 Br        1 <1>        -0.0347 
     14 C14        -3.9125   -1.2522    0.3770 C.ar      1 <1>         0.0263 
     15 BR15       -5.7068   -1.8240    0.5488 Br        1 <1>        -0.0347 
     16 H16        -2.1593    1.4793    0.0038 H         1 <1>         0.0659 
     17 H17         2.1213    1.5381    0.0191 H         1 <1>         0.0659 
     18 H18        -2.1896    3.9442    0.0122 H         1 <1>         0.0651 
     19 H19         2.0836    4.0034    0.0271 H         1 <1>         0.0651 
     20 H20        -1.5832   -0.6305   -1.9888 H         1 <1>         0.0659 
     21 H21        -1.2803   -0.3025    2.2688 H         1 <1>         0.0659 
     22 H22        -3.9227   -1.3754   -1.7612 H         1 <1>         0.0651 
     23 H23        -3.6197   -1.0479    2.4891 H         1 <1>         0.0651 
@<TRIPOS>BOND
     1    1    2 1    
     2    1    3 ar   
     3    1    4 ar   
     4    2    5 1    
     5    3    6 ar   
     6    4    7 ar   
     7    5    8 ar   
     8    5    9 ar   
     9    6   10 ar   
    10    7   10 ar   
    11    8   11 ar   
    12    9   12 ar   
    13   10   13 1    
    14   11   14 ar   
    15   12   14 ar   
    16   14   15 1    
    17    3   16 1    
    18    4   17 1    
    19    6   18 1    
    20    7   19 1    
    21    8   20 1    
    22    9   21 1    
    23   11   22 1    
    24   12   23 1    
@<TRIPOS>SUBSTRUCTURE
     1 ****        1 TEMP              0 ****  ****    0 ROOT 
#	Name:			MFCD00000101
#	Creating user name:	didier
#	Creation time:		Tue Apr  4 13:23:24 2000

#	Modifying user name:	didier
#	Modification time:	Tue Apr  4 13:23:35 2000

@<TRIPOS>MOLECULE
MFCD00000101
   22    23     1     0     0
SMALL
GASTEIGER


@<TRIPOS>ATOM
      1 C1         -0.0180    1.4796    0.0102 C.ar      1 <1>        -0.0205 
      2 C2          0.0021   -0.0041    0.0020 C.ar      1 <1>        -0.0205 
      3 C3          1.1776    2.1949    0.0026 C.ar      1 <1>        -0.0550 
      4 C4         -1.2330    2.1623    0.0196 C.ar      1 <1>        -0.0550 
      5 C5         -1.1935   -0.7194    0.0096 C.ar      1 <1>        -0.0550 
      6 C6          1.2169   -0.6867   -0.0191 C.ar      1 <1>        -0.0550 
      7 C7          1.1535    3.5748    0.0098 C.ar      1 <1>        -0.0484 
      8 C8         -1.2464    3.5420    0.0267 C.ar      1 <1>        -0.0484 
      9 C9         -1.1694   -2.0993    0.0015 C.ar      1 <1>        -0.0484 
     10 C10         1.2303   -2.0664   -0.0271 C.ar      1 <1>        -0.0484 
     11 C11        -0.0556    4.2480    0.0240 C.ar      1 <1>         0.0201 
     12 C12         0.0396   -2.7725   -0.0137 C.ar      1 <1>         0.0201 
     13 BR13       -0.0813    6.1389    0.0337 Br        1 <1>        -0.0389 
     14 BR14        0.0653   -4.6633   -0.0241 Br        1 <1>        -0.0389 
     15 H15         2.1251    1.6685   -0.0089 H         1 <1>         0.0613 
     16 H16        -2.1659    1.6103    0.0213 H         1 <1>         0.0613 
     17 H17        -2.1410   -0.1930    0.0219 H         1 <1>         0.0613 
     18 H18         2.1497   -0.1346   -0.0292 H         1 <1>         0.0613 
     19 H19         2.0832    4.1323    0.0043 H         1 <1>         0.0619 
     20 H20        -2.1909    4.0740    0.0344 H         1 <1>         0.0619 
     21 H21        -2.0991   -2.6567    0.0071 H         1 <1>         0.0619 
     22 H22         2.1747   -2.5983   -0.0439 H         1 <1>         0.0619 
@<TRIPOS>BOND
     1    1    2 1    
     2    1    3 ar   
     3    1    4 ar   
     4    2    5 ar   
     5    2    6 ar   
     6    3    7 ar   
     7    4    8 ar   
     8    5    9 ar   
     9    6   10 ar   
    10    7   11 ar   
    11    8   11 ar   
    12    9   12 ar   
    13   10   12 ar   
    14   11   13 1    
    15   12   14 1    
    16    3   15 1    
    17    4   16 1    
    18    5   17 1    
    19    6   18 1    
    20    7   19 1    
    21    8   20 1    
    22    9   21 1    
    23   10   22 1    
@<TRIPOS>SUBSTRUCTURE
     1 ****        1 TEMP              0 ****  ****    0 ROOT 
#	Name:			MFCD00000117
#	Creating user name:	didier
#	Creation time:		Tue Apr  4 13:23:24 2000

#	Modifying user name:	didier
#	Modification time:	Tue Apr  4 13:23:35 2000

@<TRIPOS>MOLECULE
MFCD00000117
    5     4     1     0     0
SMALL
GASTEIGER


@<TRIPOS>ATOM
      1 C1         -0.0246    1.9617    0.0128 C.3       1 <1>         0.1888 
      2 BR2         0.0021   -0.0041    0.0020 Br        1 <1>        -0.0472 
      3 BR3         1.8198    2.6422   -0.0011 Br        1 <1>        -0.0472 
      4 BR4        -0.9755    2.6130   -1.5799 Br        1 <1>        -0.0472 
      5 BR5        -0.9448    2.5957    1.6303 Br        1 <1>        -0.0472 
@<TRIPOS>BOND
     1    1    2 1    
     2    1    3 1    
     3    1    4 1    
     4    1    5 1    
@<TRIPOS>SUBSTRUCTURE
     1 ****        1 TEMP              0 ****  ****    0 ROOT 
#	Name:			MFCD00002147
#	Creating user name:	didier
#	Creation time:		Tue Apr  4 13:23:25 2000

#	Modifying user name:	didier
#	Modification time:	Tue Apr  4 13:23:40 2000

@<TRIPOS>MOLECULE
MFCD00002147
   13    13     1     0     0
SMALL
GASTEIGER


@<TRIPOS>ATOM
      1 C1         -0.0167    1.3836    0.0096 C.ar      1 <1>         0.0867 
      2 C2          0.0021   -0.0041    0.0020 C.ar      1 <1>         0.0624 
      3 C3          1.1763    2.0918    0.0021 C.ar      1 <1>         0.0624 
      4 O4         -1.2027    2.0482    0.0189 O.3       1 <1>        -0.3771 
      5 C5          1.2095   -0.6783   -0.0131 C.ar      1 <1>         0.0520 
      6 BR6        -1.6222   -0.9724    0.0130 Br        1 <1>        -0.0358 
      7 C7          2.3821    1.4138   -0.0131 C.ar      1 <1>         0.0520 
      8 BR8         1.1541    3.9827    0.0131 Br        1 <1>        -0.0358 
      9 C9          2.3988    0.0301   -0.0202 C.ar      1 <1>         0.0511 
     10 BR10        1.2358   -2.5691   -0.0235 Br        1 <1>        -0.0369 
     11 BR11        4.0084    2.3785   -0.0241 Br        1 <1>        -0.0369 
     12 BR12        4.0484   -0.8942   -0.0403 Br        1 <1>        -0.0370 
     13 H13        -1.9116    1.4158    0.0231 H         1 <1>         0.1929 
@<TRIPOS>BOND
     1    1    2 ar   
     2    1    3 ar   
     3    1    4 1    
     4    2    5 ar   
     5    2    6 1    
     6    3    7 ar   
     7    3    8 1    
     8    5    9 ar   
     9    5   10 1    
    10    7   11 1    
    11    7    9 ar   
    12    9   12 1    
    13    4   13 1    
@<TRIPOS>SUBSTRUCTURE
     1 ****        1 TEMP              0 ****  ****    0 ROOT 
#	Name:			MFCD00002148
#	Creating user name:	didier
#	Creation time:		Tue Apr  4 13:23:25 2000

#	Modifying user name:	didier
#	Modification time:	Tue Apr  4 13:23:40 2000

@<TRIPOS>MOLECULE
MFCD00002148
   16    16     1     0     0
SMALL
GASTEIGER


@<TRIPOS>ATOM
      1 C1         -0.0167    1.3829    0.0096 C.ar      1 <1>        -0.0082 
      2 C2          0.0021   -0.0041    0.0020 C.ar      1 <1>         0.0766 
      3 C3          1.1712    2.0897    0.0021 C.ar      1 <1>         0.0421 
      4 C4         -1.3317    2.1189    0.0199 C.3       1 <1>        -0.0367 
      5 C5          1.2140   -0.6798   -0.0132 C.ar      1 <1>         0.0634 
      6 O6         -1.1653   -0.7005    0.0099 O.3       1 <1>        -0.3771 
      7 C7          2.3795    1.4145   -0.0135 C.ar      1 <1>         0.0521 
      8 BR8         1.1456    3.9805    0.0125 Br        1 <1>        -0.0366 
      9 C9          2.4008    0.0307   -0.0207 C.ar      1 <1>         0.0539 
     10 BR10        1.2431   -2.5706   -0.0230 Br        1 <1>        -0.0346 
     11 BR11        4.0031    2.3840   -0.0244 Br        1 <1>        -0.0357 
     12 BR12        4.0529   -0.8890   -0.0408 Br        1 <1>        -0.0357 
     13 H13        -2.1522    1.3862    0.0248 H         1 <1>         0.0278 
     14 H14        -1.4046    2.7441    0.9219 H         1 <1>         0.0278 
     15 H15        -1.4173    2.7465   -0.8794 H         1 <1>         0.0278 
     16 H16        -1.8910   -0.0875    0.0200 H         1 <1>         0.1932 
@<TRIPOS>BOND
     1    1    2 ar   
     2    1    3 ar   
     3    1    4 1    
     4    2    5 ar   
     5    2    6 1    
     6    3    7 ar   
     7    3    8 1    
     8    5    9 ar   
     9    5   10 1    
    10    7   11 1    
    11    7    9 ar   
    12    9   12 1    
    13    4   13 1    
    14    4   14 1    
    15    4   15 1    
    16    6   16 1    
@<TRIPOS>SUBSTRUCTURE
     1 ****        1 TEMP              0 ****  ****    0 ROOT 
#	Name:			MFCD00002150
#	Creating user name:	didier
#	Creation time:		Tue Apr  4 13:23:25 2000

#	Modifying user name:	didier
#	Modification time:	Tue Apr  4 13:23:40 2000

@<TRIPOS>MOLECULE
MFCD00002150
   13    13     1     0     0
SMALL
GASTEIGER


@<TRIPOS>ATOM
      1 C1         -0.0167    1.3833    0.0096 C.ar      1 <1>         0.0882 
      2 C2          0.0021   -0.0041    0.0020 C.ar      1 <1>         0.0514 
      3 C3          1.1769    2.0914    0.0021 C.ar      1 <1>         0.0514 
      4 O4         -1.2026    2.0480    0.0189 O.3       1 <1>        -0.3756 
      5 C5          1.2093   -0.6779   -0.0131 C.ar      1 <1>        -0.0290 
      6 BR6        -1.6221   -0.9725    0.0130 Br        1 <1>        -0.0345 
      7 C7          2.3813    1.4134   -0.0131 C.ar      1 <1>        -0.0290 
      8 BR8         1.1556    3.9822    0.0118 Br        1 <1>        -0.0345 
      9 C9          2.3975    0.0299   -0.0202 C.ar      1 <1>         0.0254 
     10 BR10        4.0470   -0.8947   -0.0397 Br        1 <1>        -0.0368 
     11 H11        -1.9116    1.4157    0.0231 H         1 <1>         0.1935 
     12 H12         1.2245   -1.7618   -0.0194 H         1 <1>         0.0647 
     13 H13         3.3139    1.9660   -0.0195 H         1 <1>         0.0647 
@<TRIPOS>BOND
     1    1    2 ar   
     2    1    3 ar   
     3    1    4 1    
     4    2    5 ar   
     5    2    6 1    
     6    3    7 ar   
     7    3    8 1    
     8    5    9 ar   
     9    7    9 ar   
    10    9   10 1    
    11    4   11 1    
    12    5   12 1    
    13    7   13 1    
@<TRIPOS>SUBSTRUCTURE
     1 ****        1 TEMP              0 ****  ****    0 ROOT 
#	Name:			MFCD00002179
#	Creating user name:	didier
#	Creation time:		Tue Apr  4 13:23:25 2000

#	Modifying user name:	didier
#	Modification time:	Tue Apr  4 13:23:40 2000

@<TRIPOS>MOLECULE
MFCD00002179
   13    13     1     0     0
SMALL
GASTEIGER


@<TRIPOS>ATOM
      1 C1         -0.0167    1.3832    0.0096 C.ar      1 <1>         0.1274 
      2 C2          0.0021   -0.0041    0.0020 C.ar      1 <1>         0.0624 
      3 C3          1.1769    2.0911    0.0021 C.ar      1 <1>         0.0624 
      4 O4         -1.2024    2.0478    0.0189 O.3       1 <1>        -0.3548 
      5 C5          1.2090   -0.6777   -0.0131 C.ar      1 <1>         0.0068 
      6 I6         -1.7973   -1.0770    0.0141 I         1 <1>        -0.1093 
      7 C7          2.3809    1.4132   -0.0131 C.ar      1 <1>         0.0068 
      8 I8          1.1534    4.1860    0.0128 I         1 <1>        -0.1093 
      9 C9          2.3971    0.0300   -0.0207 C.ar      1 <1>         0.0355 
     10 I10         4.2244   -0.9944   -0.0436 I         1 <1>        -0.1118 
     11 H11        -1.9114    1.4155    0.0231 H         1 <1>         0.2018 
     12 H12         1.2242   -1.7616   -0.0190 H         1 <1>         0.0910 
     13 H13         3.3135    1.9658   -0.0191 H         1 <1>         0.0910 
@<TRIPOS>BOND
     1    1    2 ar   
     2    1    3 ar   
     3    1    4 1    
     4    2    5 ar   
     5    2    6 1    
     6    3    7 ar   
     7    3    8 1    
     8    5    9 ar   
     9    7    9 ar   
    10    9   10 1    
    11    4   11 1    
    12    5   12 1    
    13    7   13 1    
@<TRIPOS>SUBSTRUCTURE
     1 ****        1 TEMP              0 ****  ****    0 ROOT 
#	Name:			MFCD00002189
#	Creating user name:	didier
#	Creation time:		Tue Apr  4 13:23:25 2000

#	Modifying user name:	didier
#	Modification time:	Tue Apr  4 13:23:40 2000

@<TRIPOS>MOLECULE
MFCD00002189
   14    14     1     0     0
SMALL
GASTEIGER


@<TRIPOS>ATOM
      1 C1         -0.0168    1.3866    0.0097 C.ar      1 <1>         0.1070 
      2 C2          0.0021   -0.0041    0.0020 C.ar      1 <1>         0.1070 
      3 C3          1.1758    2.0938    0.0021 C.ar      1 <1>         0.0721 
      4 O4         -1.2033    2.0518    0.0189 O.3       1 <1>        -0.3728 
      5 C5          1.2134   -0.6785   -0.0132 C.ar      1 <1>         0.0721 
      6 O6         -1.1659   -0.7013    0.0099 O.3       1 <1>        -0.3728 
      7 C7          2.3821    1.4159   -0.0131 C.ar      1 <1>         0.0607 
      8 BR8         1.1539    3.9846    0.0118 Br        1 <1>        -0.0300 
      9 C9          2.4008    0.0320   -0.0207 C.ar      1 <1>         0.0607 
     10 BR10        1.2428   -2.5693   -0.0230 Br        1 <1>        -0.0300 
     11 BR11        4.0076    2.3820   -0.0240 Br        1 <1>        -0.0312 
     12 BR12        4.0520   -0.8895   -0.0414 Br        1 <1>        -0.0312 
     13 H13        -1.9123    1.4195    0.0232 H         1 <1>         0.1943 
     14 H14        -1.8918   -0.0885    0.0201 H         1 <1>         0.1943 
@<TRIPOS>BOND
     1    1    2 ar   
     2    1    3 ar   
     3    1    4 1    
     4    2    5 ar   
     5    2    6 1    
     6    3    7 ar   
     7    3    8 1    
     8    5    9 ar   
     9    5   10 1    
    10    7   11 1    
    11    7    9 ar   
    12    9   12 1    
    13    4   13 1    
    14    6   14 1    
@<TRIPOS>SUBSTRUCTURE
     1 ****        1 TEMP              0 ****  ****    0 ROOT 

