#	Name:			MFCD00002147
#	Creating user name:	didier
#	Creation time:		Tue Apr  4 13:23:25 2000

#	Modifying user name:	didier
#	Modification time:	Tue Apr  4 13:23:40 2000

@<TRIPOS>MOLECULE
MFCD00002147
   13    13     1     0     0
SMALL
GASTEIGER


@<TRIPOS>ATOM
      1 C1         -0.0167    1.3836    0.0096 C.ar      1 <1>         0.0867 
      2 C2          0.0021   -0.0041    0.0020 C.ar      1 <1>         0.0624 
      3 C3          1.1763    2.0918    0.0021 C.ar      1 <1>         0.0624 
      4 O4         -1.2027    2.0482    0.0189 O.3       1 <1>        -0.3771 
      5 C5          1.2095   -0.6783   -0.0131 C.ar      1 <1>         0.0520 
      6 BR6        -1.6222   -0.9724    0.0130 Br        1 <1>        -0.0358 
      7 C7          2.3821    1.4138   -0.0131 C.ar      1 <1>         0.0520 
      8 BR8         1.1541    3.9827    0.0131 Br        1 <1>        -0.0358 
      9 C9          2.3988    0.0301   -0.0202 C.ar      1 <1>         0.0511 
     10 BR10        1.2358   -2.5691   -0.0235 Br        1 <1>        -0.0369 
     11 BR11        4.0084    2.3785   -0.0241 Br        1 <1>        -0.0369 
     12 BR12        4.0484   -0.8942   -0.0403 Br        1 <1>        -0.0370 
     13 H13        -1.9116    1.4158    0.0231 H         1 <1>         0.1929 
@<TRIPOS>BOND
     1    1    2 ar   
     2    1    3 ar   
     3    1    4 1    
     4    2    5 ar   
     5    2    6 1    
     6    3    7 ar   
     7    3    8 1    
     8    5    9 ar   
     9    5   10 1    
    10    7   11 1    
    11    7    9 ar   
    12    9   12 1    
    13    4   13 1    
@<TRIPOS>SUBSTRUCTURE
     1 ****        1 TEMP              0 ****  ****    0 ROOT 
#	Name:			MFCD00002148
#	Creating user name:	didier
#	Creation time:		Tue Apr  4 13:23:25 2000

#	Modifying user name:	didier
#	Modification time:	Tue Apr  4 13:23:40 2000

@<TRIPOS>MOLECULE
MFCD00002148
   16    16     1     0     0
SMALL
GASTEIGER


@<TRIPOS>ATOM
      1 C1         -0.0167    1.3829    0.0096 C.ar      1 <1>        -0.0082 
      2 C2          0.0021   -0.0041    0.0020 C.ar      1 <1>         0.0766 
      3 C3          1.1712    2.0897    0.0021 C.ar      1 <1>         0.0421 
      4 C4         -1.3317    2.1189    0.0199 C.3       1 <1>        -0.0367 
      5 C5          1.2140   -0.6798   -0.0132 C.ar      1 <1>         0.0634 
      6 O6         -1.1653   -0.7005    0.0099 O.3       1 <1>        -0.3771 
      7 C7          2.3795    1.4145   -0.0135 C.ar      1 <1>         0.0521 
      8 BR8         1.1456    3.9805    0.0125 Br        1 <1>        -0.0366 
      9 C9          2.4008    0.0307   -0.0207 C.ar      1 <1>         0.0539 
     10 BR10        1.2431   -2.5706   -0.0230 Br        1 <1>        -0.0346 
     11 BR11        4.0031    2.3840   -0.0244 Br        1 <1>        -0.0357 
     12 BR12        4.0529   -0.8890   -0.0408 Br        1 <1>        -0.0357 
     13 H13        -2.1522    1.3862    0.0248 H         1 <1>         0.0278 
     14 H14        -1.4046    2.7441    0.9219 H         1 <1>         0.0278 
     15 H15        -1.4173    2.7465   -0.8794 H         1 <1>         0.0278 
     16 H16        -1.8910   -0.0875    0.0200 H         1 <1>         0.1932 
@<TRIPOS>BOND
     1    1    2 ar   
     2    1    3 ar   
     3    1    4 1    
     4    2    5 ar   
     5    2    6 1    
     6    3    7 ar   
     7    3    8 1    
     8    5    9 ar   
     9    5   10 1    
    10    7   11 1    
    11    7    9 ar   
    12    9   12 1    
    13    4   13 1    
    14    4   14 1    
    15    4   15 1    
    16    6   16 1    
@<TRIPOS>SUBSTRUCTURE
     1 ****        1 TEMP              0 ****  ****    0 ROOT 
#	Name:			MFCD00002150
#	Creating user name:	didier
#	Creation time:		Tue Apr  4 13:23:25 2000

#	Modifying user name:	didier
#	Modification time:	Tue Apr  4 13:23:40 2000

@<TRIPOS>MOLECULE
MFCD00002150
   13    13     1     0     0
SMALL
GASTEIGER


@<TRIPOS>ATOM
      1 C1         -0.0167    1.3833    0.0096 C.ar      1 <1>         0.0882 
      2 C2          0.0021   -0.0041    0.0020 C.ar      1 <1>         0.0514 
      3 C3          1.1769    2.0914    0.0021 C.ar      1 <1>         0.0514 
      4 O4         -1.2026    2.0480    0.0189 O.3       1 <1>        -0.3756 
      5 C5          1.2093   -0.6779   -0.0131 C.ar      1 <1>        -0.0290 
      6 BR6        -1.6221   -0.9725    0.0130 Br        1 <1>        -0.0345 
      7 C7          2.3813    1.4134   -0.0131 C.ar      1 <1>        -0.0290 
      8 BR8         1.1556    3.9822    0.0118 Br        1 <1>        -0.0345 
      9 C9          2.3975    0.0299   -0.0202 C.ar      1 <1>         0.0254 
     10 BR10        4.0470   -0.8947   -0.0397 Br        1 <1>        -0.0368 
     11 H11        -1.9116    1.4157    0.0231 H         1 <1>         0.1935 
     12 H12         1.2245   -1.7618   -0.0194 H         1 <1>         0.0647 
     13 H13         3.3139    1.9660   -0.0195 H         1 <1>         0.0647 
@<TRIPOS>BOND
     1    1    2 ar   
     2    1    3 ar   
     3    1    4 1    
     4    2    5 ar   
     5    2    6 1    
     6    3    7 ar   
     7    3    8 1    
     8    5    9 ar   
     9    7    9 ar   
    10    9   10 1    
    11    4   11 1    
    12    5   12 1    
    13    7   13 1    
@<TRIPOS>SUBSTRUCTURE
     1 ****        1 TEMP              0 ****  ****    0 ROOT 
