#	Name:			MFCD00002179
#	Creating user name:	didier
#	Creation time:		Tue Apr  4 13:23:25 2000

#	Modifying user name:	didier
#	Modification time:	Tue Apr  4 13:23:40 2000

@<TRIPOS>MOLECULE
MFCD00002179
   13    13     1     0     0
SMALL
GASTEIGER


@<TRIPOS>ATOM
      1 C1         -0.0167    1.3832    0.0096 C.ar      1 <1>         0.1274 
      2 C2          0.0021   -0.0041    0.0020 C.ar      1 <1>         0.0624 
      3 C3          1.1769    2.0911    0.0021 C.ar      1 <1>         0.0624 
      4 O4         -1.2024    2.0478    0.0189 O.3       1 <1>        -0.3548 
      5 C5          1.2090   -0.6777   -0.0131 C.ar      1 <1>         0.0068 
      6 I6         -1.7973   -1.0770    0.0141 I         1 <1>        -0.1093 
      7 C7          2.3809    1.4132   -0.0131 C.ar      1 <1>         0.0068 
      8 I8          1.1534    4.1860    0.0128 I         1 <1>        -0.1093 
      9 C9          2.3971    0.0300   -0.0207 C.ar      1 <1>         0.0355 
     10 I10         4.2244   -0.9944   -0.0436 I         1 <1>        -0.1118 
     11 H11        -1.9114    1.4155    0.0231 H         1 <1>         0.2018 
     12 H12         1.2242   -1.7616   -0.0190 H         1 <1>         0.0910 
     13 H13         3.3135    1.9658   -0.0191 H         1 <1>         0.0910 
@<TRIPOS>BOND
     1    1    2 ar   
     2    1    3 ar   
     3    1    4 1    
     4    2    5 ar   
     5    2    6 1    
     6    3    7 ar   
     7    3    8 1    
     8    5    9 ar   
     9    7    9 ar   
    10    9   10 1    
    11    4   11 1    
    12    5   12 1    
    13    7   13 1    
@<TRIPOS>SUBSTRUCTURE
     1 ****        1 TEMP              0 ****  ****    0 ROOT 
#	Name:			MFCD00002189
#	Creating user name:	didier
#	Creation time:		Tue Apr  4 13:23:25 2000

#	Modifying user name:	didier
#	Modification time:	Tue Apr  4 13:23:40 2000

@<TRIPOS>MOLECULE
MFCD00002189
   14    14     1     0     0
SMALL
GASTEIGER


@<TRIPOS>ATOM
      1 C1         -0.0168    1.3866    0.0097 C.ar      1 <1>         0.1070 
      2 C2          0.0021   -0.0041    0.0020 C.ar      1 <1>         0.1070 
      3 C3          1.1758    2.0938    0.0021 C.ar      1 <1>         0.0721 
      4 O4         -1.2033    2.0518    0.0189 O.3       1 <1>        -0.3728 
      5 C5          1.2134   -0.6785   -0.0132 C.ar      1 <1>         0.0721 
      6 O6         -1.1659   -0.7013    0.0099 O.3       1 <1>        -0.3728 
      7 C7          2.3821    1.4159   -0.0131 C.ar      1 <1>         0.0607 
      8 BR8         1.1539    3.9846    0.0118 Br        1 <1>        -0.0300 
      9 C9          2.4008    0.0320   -0.0207 C.ar      1 <1>         0.0607 
     10 BR10        1.2428   -2.5693   -0.0230 Br        1 <1>        -0.0300 
     11 BR11        4.0076    2.3820   -0.0240 Br        1 <1>        -0.0312 
     12 BR12        4.0520   -0.8895   -0.0414 Br        1 <1>        -0.0312 
     13 H13        -1.9123    1.4195    0.0232 H         1 <1>         0.1943 
     14 H14        -1.8918   -0.0885    0.0201 H         1 <1>         0.1943 
@<TRIPOS>BOND
     1    1    2 ar   
     2    1    3 ar   
     3    1    4 1    
     4    2    5 ar   
     5    2    6 1    
     6    3    7 ar   
     7    3    8 1    
     8    5    9 ar   
     9    5   10 1    
    10    7   11 1    
    11    7    9 ar   
    12    9   12 1    
    13    4   13 1    
    14    6   14 1    
@<TRIPOS>SUBSTRUCTURE
     1 ****        1 TEMP              0 ****  ****    0 ROOT 
