#	Name:			MFCD00000062
#	Creating user name:	didier
#	Creation time:		Tue Apr  4 13:23:24 2000

#	Modifying user name:	didier
#	Modification time:	Tue Apr  4 13:23:35 2000

@<TRIPOS>MOLECULE
MFCD00000062
   12    12     1     0     0
SMALL
GASTEIGER


@<TRIPOS>ATOM
      1 C1         -0.0167    1.3797    0.0096 C.ar      1 <1>         0.0319 
      2 C2          0.0021   -0.0041    0.0020 C.ar      1 <1>         0.0309 
      3 C3          1.1718    2.0871    0.0021 C.ar      1 <1>        -0.0368 
      4 BR4        -1.6668    2.3032    0.0224 Br        1 <1>        -0.0403 
      5 C5          1.2094   -0.6791   -0.0131 C.ar      1 <1>        -0.0504 
      6 BR6        -1.6224   -0.9719    0.0130 Br        1 <1>        -0.0404 
      7 C7          2.3783    1.4114   -0.0131 C.ar      1 <1>         0.0174 
      8 C8          2.3966    0.0280   -0.0207 C.ar      1 <1>        -0.0515 
      9 BR9         4.0034    2.3784   -0.0240 Br        1 <1>        -0.0415 
     10 H10         1.1576    3.1710    0.0081 H         1 <1>         0.0611 
     11 H11         1.2242   -1.7630   -0.0190 H         1 <1>         0.0599 
     12 H12         3.3425   -0.5013   -0.0326 H         1 <1>         0.0599 
@<TRIPOS>BOND
     1    1    2 ar   
     2    1    3 ar   
     3    1    4 1    
     4    2    5 ar   
     5    2    6 1    
     6    3    7 ar   
     7    5    8 ar   
     8    7    9 1    
     9    7    8 ar   
    10    3   10 1    
    11    5   11 1    
    12    8   12 1    
@<TRIPOS>SUBSTRUCTURE
     1 ****        1 TEMP              0 ****  ****    0 ROOT 
#	Name:			MFCD00000063
#	Creating user name:	didier
#	Creation time:		Tue Apr  4 13:23:24 2000

#	Modifying user name:	didier
#	Modification time:	Tue Apr  4 13:23:35 2000

@<TRIPOS>MOLECULE
MFCD00000063
   12    12     1     0     0
SMALL
GASTEIGER


@<TRIPOS>ATOM
      1 C1         -0.0167    1.3798    0.0096 C.ar      1 <1>         0.0302 
      2 C2          0.0021   -0.0041    0.0020 C.ar      1 <1>         0.0302 
      3 C3          1.1716    2.0876    0.0021 C.ar      1 <1>        -0.0374 
      4 BR4        -1.6670    2.3029    0.0224 Br        1 <1>        -0.0416 
      5 C5          1.2092   -0.6793   -0.0131 C.ar      1 <1>        -0.0374 
      6 BR6        -1.6225   -0.9718    0.0129 Br        1 <1>        -0.0416 
      7 C7          2.3784    1.4126   -0.0130 C.ar      1 <1>         0.0302 
      8 C8          2.3971    0.0283   -0.0206 C.ar      1 <1>         0.0302 
      9 BR9         4.0029    2.3803   -0.0246 Br        1 <1>        -0.0416 
     10 BR10        4.0474   -0.8948   -0.0401 Br        1 <1>        -0.0416 
     11 H11         1.1569    3.1715    0.0081 H         1 <1>         0.0602 
     12 H12         1.2239   -1.7632   -0.0191 H         1 <1>         0.0602 
@<TRIPOS>BOND
     1    1    2 ar   
     2    1    3 ar   
     3    1    4 1    
     4    2    5 ar   
     5    2    6 1    
     6    3    7 ar   
     7    5    8 ar   
     8    7    9 1    
     9    7    8 ar   
    10    8   10 1    
    11    3   11 1    
    12    5   12 1    
@<TRIPOS>SUBSTRUCTURE
     1 ****        1 TEMP              0 ****  ****    0 ROOT 
#	Name:			MFCD00000080
#	Creating user name:	didier
#	Creation time:		Tue Apr  4 13:23:24 2000

#	Modifying user name:	didier
#	Modification time:	Tue Apr  4 13:23:35 2000

@<TRIPOS>MOLECULE
MFCD00000080
   12    12     1     0     0
SMALL
GASTEIGER


@<TRIPOS>ATOM
      1 C1         -0.0167    1.3791    0.0096 C.ar      1 <1>         0.0184 
      2 C2          0.0021   -0.0041    0.0020 C.ar      1 <1>        -0.0379 
      3 C3          1.1714    2.0868    0.0021 C.ar      1 <1>        -0.0379 
      4 BR4        -1.6670    2.3023    0.0225 Br        1 <1>        -0.0415 
      5 C5          1.2089   -0.6792   -0.0132 C.ar      1 <1>         0.0184 
      6 C6          2.3787    1.4115   -0.0131 C.ar      1 <1>         0.0184 
      7 C7          2.3974    0.0288   -0.0212 C.ar      1 <1>        -0.0379 
      8 BR8         1.2346   -2.5700   -0.0223 Br        1 <1>        -0.0415 
      9 BR9         4.0033    2.3792   -0.0247 Br        1 <1>        -0.0415 
     10 H10        -0.9292   -0.5588    0.0080 H         1 <1>         0.0610 
     11 H11         1.1567    3.1707    0.0081 H         1 <1>         0.0610 
     12 H12         3.3434   -0.5004   -0.0338 H         1 <1>         0.0610 
@<TRIPOS>BOND
     1    1    2 ar   
     2    1    3 ar   
     3    1    4 1    
     4    2    5 ar   
     5    3    6 ar   
     6    5    7 ar   
     7    5    8 1    
     8    6    9 1    
     9    6    7 ar   
    10    2   10 1    
    11    3   11 1    
    12    7   12 1    
@<TRIPOS>SUBSTRUCTURE
     1 ****        1 TEMP              0 ****  ****    0 ROOT 
