#	Name:			MFCD00000058
#	Creating user name:	didier
#	Creation time:		Tue Apr  4 13:23:24 2000

#	Modifying user name:	didier
#	Modification time:	Tue Apr  4 13:23:34 2000

@<TRIPOS>MOLECULE
MFCD00000058
   12    12     1     0     0
SMALL
GASTEIGER


@<TRIPOS>ATOM
      1 C1         -0.0167    1.3794    0.0096 C.ar      1 <1>         0.0426 
      2 C2          0.0021   -0.0041    0.0020 C.ar      1 <1>         0.0426 
      3 C3          1.1724    2.0877    0.0021 C.ar      1 <1>         0.0426 
      4 BR4        -1.6670    2.3026    0.0224 Br        1 <1>        -0.0426 
      5 C5          1.2099   -0.6797   -0.0131 C.ar      1 <1>         0.0426 
      6 BR6        -1.6225   -0.9718    0.0117 Br        1 <1>        -0.0426 
      7 C7          2.3799    1.4123   -0.0131 C.ar      1 <1>         0.0426 
      8 BR8         1.1468    3.9785    0.0118 Br        1 <1>        -0.0426 
      9 C9          2.3987    0.0283   -0.0202 C.ar      1 <1>         0.0426 
     10 BR10        1.2356   -2.5705   -0.0235 Br        1 <1>        -0.0426 
     11 BR11        4.0045    2.3800   -0.0227 Br        1 <1>        -0.0426 
     12 BR12        4.0489   -0.8948   -0.0402 Br        1 <1>        -0.0426 
@<TRIPOS>BOND
     1    1    2 ar   
     2    1    3 ar   
     3    1    4 1    
     4    2    5 ar   
     5    2    6 1    
     6    3    7 ar   
     7    3    8 1    
     8    5    9 ar   
     9    5   10 1    
    10    7   11 1    
    11    7    9 ar   
    12    9   12 1    
@<TRIPOS>SUBSTRUCTURE
     1 ****        1 TEMP              0 ****  ****    0 ROOT 
#	Name:			MFCD00000060
#	Creating user name:	didier
#	Creation time:		Tue Apr  4 13:23:24 2000

#	Modifying user name:	didier
#	Modification time:	Tue Apr  4 13:23:35 2000

@<TRIPOS>MOLECULE
MFCD00000060
   15    15     1     0     0
SMALL
GASTEIGER


@<TRIPOS>ATOM
      1 C1         -0.0167    1.3786    0.0096 C.ar      1 <1>        -0.0277 
      2 C2          0.0021   -0.0041    0.0020 C.ar      1 <1>         0.0325 
      3 C3          1.1715    2.0869    0.0021 C.ar      1 <1>         0.0325 
      4 C4         -1.3320    2.1141    0.0199 C.3       1 <1>        -0.0404 
      5 C5          1.2100   -0.6800   -0.0127 C.ar      1 <1>         0.0433 
      6 BR6        -1.6226   -0.9716    0.0124 Br        1 <1>        -0.0424 
      7 C7          2.3794    1.4119   -0.0136 C.ar      1 <1>         0.0433 
      8 BR8         1.1451    3.9777    0.0126 Br        1 <1>        -0.0424 
      9 C9          2.3987    0.0281   -0.0203 C.ar      1 <1>         0.0441 
     10 BR10        1.2355   -2.5708   -0.0219 Br        1 <1>        -0.0415 
     11 BR11        4.0036    2.3803   -0.0251 Br        1 <1>        -0.0415 
     12 BR12        4.0491   -0.8948   -0.0399 Br        1 <1>        -0.0415 
     13 H13        -2.1522    1.3811    0.0248 H         1 <1>         0.0272 
     14 H14        -1.4051    2.7393    0.9219 H         1 <1>         0.0272 
     15 H15        -1.4179    2.7417   -0.8794 H         1 <1>         0.0272 
@<TRIPOS>BOND
     1    1    2 ar   
     2    1    3 ar   
     3    1    4 1    
     4    2    5 ar   
     5    2    6 1    
     6    3    7 ar   
     7    3    8 1    
     8    5    9 ar   
     9    5   10 1    
    10    7   11 1    
    11    7    9 ar   
    12    9   12 1    
    13    4   13 1    
    14    4   14 1    
    15    4   15 1    
@<TRIPOS>SUBSTRUCTURE
     1 ****        1 TEMP              0 ****  ****    0 ROOT 
#	Name:			MFCD00000061
#	Creating user name:	didier
#	Creation time:		Tue Apr  4 13:23:24 2000

#	Modifying user name:	didier
#	Modification time:	Tue Apr  4 13:23:35 2000

@<TRIPOS>MOLECULE
MFCD00000061
   18    18     1     0     0
SMALL
GASTEIGER


@<TRIPOS>ATOM
      1 C1         -0.0167    1.3786    0.0096 C.ar      1 <1>        -0.0249 
      2 C2          0.0021   -0.0041    0.0020 C.ar      1 <1>         0.0328 
      3 C3          1.1715    2.0869    0.0021 C.ar      1 <1>         0.0328 
      4 C4         -1.3320    2.1141    0.0199 C.3       1 <1>        -0.0311 
      5 C5          1.2100   -0.6800   -0.0127 C.ar      1 <1>         0.0433 
      6 BR6        -1.6226   -0.9716    0.0124 Br        1 <1>        -0.0424 
      7 C7          2.3794    1.4119   -0.0136 C.ar      1 <1>         0.0433 
      8 BR8         1.1451    3.9777    0.0126 Br        1 <1>        -0.0424 
      9 C9         -1.7703    2.3551    1.4658 C.3       1 <1>        -0.0617 
     10 C10         2.3987    0.0281   -0.0203 C.ar      1 <1>         0.0441 
     11 BR11        1.2355   -2.5708   -0.0219 Br        1 <1>        -0.0415 
     12 BR12        4.0036    2.3803   -0.0251 Br        1 <1>        -0.0415 
     13 BR13        4.0491   -0.8948   -0.0399 Br        1 <1>        -0.0415 
     14 H14        -1.2204    3.0851   -0.4848 H         1 <1>         0.0305 
     15 H15        -2.0996    1.5128   -0.4892 H         1 <1>         0.0305 
     16 H16        -2.7304    2.8920    1.4642 H         1 <1>         0.0232 
     17 H17        -1.8986    1.3934    1.9841 H         1 <1>         0.0232 
     18 H18        -1.0194    2.9657    1.9886 H         1 <1>         0.0232 
@<TRIPOS>BOND
     1    1    2 ar   
     2    1    3 ar   
     3    1    4 1    
     4    2    5 ar   
     5    2    6 1    
     6    3    7 ar   
     7    3    8 1    
     8    4    9 1    
     9    5   10 ar   
    10    5   11 1    
    11    7   12 1    
    12    7   10 ar   
    13   10   13 1    
    14    4   14 1    
    15    4   15 1    
    16    9   16 1    
    17    9   17 1    
    18    9   18 1    
@<TRIPOS>SUBSTRUCTURE
     1 ****        1 TEMP              0 ****  ****    0 ROOT 
