#	Name:			MFCD00000095
#	Creating user name:	didier
#	Creation time:		Tue Apr  4 13:23:24 2000

#	Modifying user name:	didier
#	Modification time:	Tue Apr  4 13:23:35 2000

@<TRIPOS>MOLECULE
MFCD00000095
   23    24     1     0     0
SMALL
GASTEIGER


@<TRIPOS>ATOM
      1 C1         -0.0167    1.3548    0.0061 C.ar      1 <1>         0.0620 
      2 O2          0.0021   -0.0041    0.0020 O.3       1 <1>        -0.3382 
      3 C3         -1.2274    2.0330    0.0069 C.ar      1 <1>        -0.0322 
      4 C4          1.1745    2.0659    0.0154 C.ar      1 <1>        -0.0322 
      5 C5         -1.2874   -0.4151    0.1255 C.ar      1 <1>         0.0620 
      6 C6         -1.2441    3.4140    0.0116 C.ar      1 <1>        -0.0411 
      7 C7          1.1531    3.4473    0.0200 C.ar      1 <1>        -0.0411 
      8 C8         -2.0306   -0.7199   -1.0055 C.ar      1 <1>        -0.0322 
      9 C9         -1.8607   -0.5359    1.3835 C.ar      1 <1>        -0.0322 
     10 C10        -0.0549    4.1213    0.0155 C.ar      1 <1>         0.0263 
     11 C11        -3.3414   -1.1375   -0.8777 C.ar      1 <1>        -0.0411 
     12 C12        -3.1713   -0.9537    1.5067 C.ar      1 <1>        -0.0411 
     13 BR13       -0.0810    6.0122    0.0212 Br        1 <1>        -0.0347 
     14 C14        -3.9125   -1.2522    0.3770 C.ar      1 <1>         0.0263 
     15 BR15       -5.7068   -1.8240    0.5488 Br        1 <1>        -0.0347 
     16 H16        -2.1593    1.4793    0.0038 H         1 <1>         0.0659 
     17 H17         2.1213    1.5381    0.0191 H         1 <1>         0.0659 
     18 H18        -2.1896    3.9442    0.0122 H         1 <1>         0.0651 
     19 H19         2.0836    4.0034    0.0271 H         1 <1>         0.0651 
     20 H20        -1.5832   -0.6305   -1.9888 H         1 <1>         0.0659 
     21 H21        -1.2803   -0.3025    2.2688 H         1 <1>         0.0659 
     22 H22        -3.9227   -1.3754   -1.7612 H         1 <1>         0.0651 
     23 H23        -3.6197   -1.0479    2.4891 H         1 <1>         0.0651 
@<TRIPOS>BOND
     1    1    2 1    
     2    1    3 ar   
     3    1    4 ar   
     4    2    5 1    
     5    3    6 ar   
     6    4    7 ar   
     7    5    8 ar   
     8    5    9 ar   
     9    6   10 ar   
    10    7   10 ar   
    11    8   11 ar   
    12    9   12 ar   
    13   10   13 1    
    14   11   14 ar   
    15   12   14 ar   
    16   14   15 1    
    17    3   16 1    
    18    4   17 1    
    19    6   18 1    
    20    7   19 1    
    21    8   20 1    
    22    9   21 1    
    23   11   22 1    
    24   12   23 1    
@<TRIPOS>SUBSTRUCTURE
     1 ****        1 TEMP              0 ****  ****    0 ROOT 
#	Name:			MFCD00000101
#	Creating user name:	didier
#	Creation time:		Tue Apr  4 13:23:24 2000

#	Modifying user name:	didier
#	Modification time:	Tue Apr  4 13:23:35 2000

@<TRIPOS>MOLECULE
MFCD00000101
   22    23     1     0     0
SMALL
GASTEIGER


@<TRIPOS>ATOM
      1 C1         -0.0180    1.4796    0.0102 C.ar      1 <1>        -0.0205 
      2 C2          0.0021   -0.0041    0.0020 C.ar      1 <1>        -0.0205 
      3 C3          1.1776    2.1949    0.0026 C.ar      1 <1>        -0.0550 
      4 C4         -1.2330    2.1623    0.0196 C.ar      1 <1>        -0.0550 
      5 C5         -1.1935   -0.7194    0.0096 C.ar      1 <1>        -0.0550 
      6 C6          1.2169   -0.6867   -0.0191 C.ar      1 <1>        -0.0550 
      7 C7          1.1535    3.5748    0.0098 C.ar      1 <1>        -0.0484 
      8 C8         -1.2464    3.5420    0.0267 C.ar      1 <1>        -0.0484 
      9 C9         -1.1694   -2.0993    0.0015 C.ar      1 <1>        -0.0484 
     10 C10         1.2303   -2.0664   -0.0271 C.ar      1 <1>        -0.0484 
     11 C11        -0.0556    4.2480    0.0240 C.ar      1 <1>         0.0201 
     12 C12         0.0396   -2.7725   -0.0137 C.ar      1 <1>         0.0201 
     13 BR13       -0.0813    6.1389    0.0337 Br        1 <1>        -0.0389 
     14 BR14        0.0653   -4.6633   -0.0241 Br        1 <1>        -0.0389 
     15 H15         2.1251    1.6685   -0.0089 H         1 <1>         0.0613 
     16 H16        -2.1659    1.6103    0.0213 H         1 <1>         0.0613 
     17 H17        -2.1410   -0.1930    0.0219 H         1 <1>         0.0613 
     18 H18         2.1497   -0.1346   -0.0292 H         1 <1>         0.0613 
     19 H19         2.0832    4.1323    0.0043 H         1 <1>         0.0619 
     20 H20        -2.1909    4.0740    0.0344 H         1 <1>         0.0619 
     21 H21        -2.0991   -2.6567    0.0071 H         1 <1>         0.0619 
     22 H22         2.1747   -2.5983   -0.0439 H         1 <1>         0.0619 
@<TRIPOS>BOND
     1    1    2 1    
     2    1    3 ar   
     3    1    4 ar   
     4    2    5 ar   
     5    2    6 ar   
     6    3    7 ar   
     7    4    8 ar   
     8    5    9 ar   
     9    6   10 ar   
    10    7   11 ar   
    11    8   11 ar   
    12    9   12 ar   
    13   10   12 ar   
    14   11   13 1    
    15   12   14 1    
    16    3   15 1    
    17    4   16 1    
    18    5   17 1    
    19    6   18 1    
    20    7   19 1    
    21    8   20 1    
    22    9   21 1    
    23   10   22 1    
@<TRIPOS>SUBSTRUCTURE
     1 ****        1 TEMP              0 ****  ****    0 ROOT 
#	Name:			MFCD00000117
#	Creating user name:	didier
#	Creation time:		Tue Apr  4 13:23:24 2000

#	Modifying user name:	didier
#	Modification time:	Tue Apr  4 13:23:35 2000

@<TRIPOS>MOLECULE
MFCD00000117
    5     4     1     0     0
SMALL
GASTEIGER


@<TRIPOS>ATOM
      1 C1         -0.0246    1.9617    0.0128 C.3       1 <1>         0.1888 
      2 BR2         0.0021   -0.0041    0.0020 Br        1 <1>        -0.0472 
      3 BR3         1.8198    2.6422   -0.0011 Br        1 <1>        -0.0472 
      4 BR4        -0.9755    2.6130   -1.5799 Br        1 <1>        -0.0472 
      5 BR5        -0.9448    2.5957    1.6303 Br        1 <1>        -0.0472 
@<TRIPOS>BOND
     1    1    2 1    
     2    1    3 1    
     3    1    4 1    
     4    1    5 1    
@<TRIPOS>SUBSTRUCTURE
     1 ****        1 TEMP              0 ****  ****    0 ROOT 
